[TITLE]
;;Project Title/Notes
INP file created on 8/25/2016 4:51:46 PM by fsaleh with inpPINS version 0.0.3.0
Title/Notes:

[OPTIONS]
;;Option             Value
FLOW_UNITS           CFS
INFILTRATION         CURVE_NUMBER
FLOW_ROUTING         DYNWAVE
LINK_OFFSETS         DEPTH
MIN_SLOPE            0
ALLOW_PONDING        NO
SKIP_STEADY_STATE    NO

START_DATE           05/27/2013
START_TIME           16:00:00
REPORT_START_DATE    05/27/2013
REPORT_START_TIME    16:00:00
END_DATE             06/18/2013
END_TIME             04:00:00
SWEEP_START          01/01
SWEEP_END            12/31
DRY_DAYS             0
REPORT_STEP          00:05:00
WET_STEP             00:05:00
DRY_STEP             00:05:00
ROUTING_STEP         0:00:01 

INERTIAL_DAMPING     PARTIAL
NORMAL_FLOW_LIMITED  BOTH
FORCE_MAIN_EQUATION  D-W
VARIABLE_STEP        0.75
LENGTHENING_STEP     0
MIN_SURFAREA         1.14
MAX_TRIALS           8
HEAD_TOLERANCE       0.0015
SYS_FLOW_TOL         5
LAT_FLOW_TOL         5
MINIMUM_STEP         0.5
THREADS              1

[EVAPORATION]
;;Data Source    Parameters
;;-------------- ----------------
MONTHLY          0.0152 0.0246 0.0468 0.0800 0.1171 0.1353 0.1439 0.1226 0.0880 0.0526 0.0260 0.0148
DRY_ONLY         NO

[RAINGAGES]
;;Name           Format    Interval SCF      Source    
;;-------------- --------- ------ ------ ----------
RainGage         INTENSITY 1:00     1.0      TIMESERIES Large_060613    

[SUBCATCHMENTS]
;;Name           Rain Gage        Outlet           Area     %Imperv  Width    %Slope   CurbLen  SnowPack        
;;-------------- ---------------- ---------------- -------- -------- -------- -------- -------- ----------------
S-H1-AD-026      RainGage         H1-AD-026        1.218840003 83.52941176 209.7575121 0.001    0                        
S-H3-up          RainGage         H3-GA-020        11.54819965 57.11538462 280.468147 1.548431802 0                        
S-H4-mid         RainGage         H4-07-090        33.7579  64.498536 786.286257 0.668106 0                        
S-H4-up          RainGage         H4-07-150        39.4751  73.811167 1520.740366 0.158539 0                        
S-H5-dn          RainGage         H5-INT-008A      59.68230057 61.99834163 1523.032683 5.952838466 0                        
S-H5-mid         RainGage         H5-11-520        30.71990013 70.6154465 1330.718552 1.135020324 0                        
S-H5-up          RainGage         H5-11-730        55.54090118 78.65940418 1531.288335 0.65933857 0                        
S-H6             RainGage         H6-WA-001        25.50880051 78.84093113 1300.252915 1.242832033 0                        
S-H7-mid         RainGage         H7-15-012B       14.64840031 70.15202703 1181.234436 0.609343 0                        
S-H7-up          RainGage         H7-15-007        66.24849701 76.44137416 1686.307331 0.558074313 0                        
S-H1_MA-048      RainGage         H1-MA-048        2.975440025 72.41666667 303.9670773 0.001    0                        
S-H1-01-033      RainGage         H1-GR-016        2.313730001 95.05434783 255.0030412 0.493696111 0                        
S-H1-01-075      RainGage         H1-AD-018        3.746989965 88.38815789 303.2481753 0.254028158 0                        
S-H1-01-080      RainGage         H1-01-080        3.128190041 75       259.6855828 0.028436092 0                        
S-H1-01-100      RainGage         H1-JA-020        9.067290306 79.52316076 294.3947408 0.37122139 0                        
S-H1-01-110      RainGage         H1-01-110        7.857029915 91.73566879 262.1833625 0.573321641 0                        
S-H1-03-003A     RainGage         H1-BL-031        2.200639963 85.22988506 236.0587178 2.766215256 0                        
S-H1-03-060      RainGage         H1-03-060        2.558150053 82.21153846 261.4431556 0.543427198 0                        
S-H1-03-090      RainGage         H1-03-090        2.827860117 85       277.896896 0.128397949 0                        
S-H1-03-170A     RainGage         H1-03-170A       2.637190104 78.73831776 266.9300376 0.001    0                        
S-H1-03-200      RainGage         H1-03-200        2.882999897 68.84615385 278.58592 0.001    0                        
S-H1-03-210      RainGage         H1-03-210        3.130919933 65       297.4908194 0.008101922 0                        
S-H1-07-013      RainGage         H1-WA-011        2.20065999 78.14606742 266.879575 2.927912244 0                        
S-H1-AD-010      RainGage         H1-AD-011        2.259219885 96.42857143 300.0445771 1.220872569 0                        
S-H1-AD-030      RainGage         H1-AD-030        1.558390021 77.578125 262.2370992 0.001    0                        
S-H1-AD-035      RainGage         H1-03-140        2.471519947 82.37373737 251.3431554 0.001    0                        
S-H1-AD-039      RainGage         H1-AD-039        2.422539949 87.44897959 263.4023607 0.001    0                        
S-H1-AD-043      RainGage         H1-AD-043        2.5615201 91.29807692 262.5969377 0.001    0                        
S-H1-AD-048      RainGage         H1-AD-048        2.538700104 85.91346154 257.810461 0.001    0                        
S-H1-BL_090      RainGage         H1-BL-090        3.044009924 59.87804878 268.0921116 2.627203825 0                        
S-H1-BL_093      RainGage         H1-BL-095        2.658819914 60.37037037 275.572549 2.701498211 0                        
S-H1-BL-015      RainGage         H1-BL-014        2.266979933 89.56521739 274.0374201 2.823312692 0                        
S-H1-BL-019      RainGage         H1-BL-020        2.380599976 87.78350515 308.2658992 2.985871057 0                        
S-H1-BL-020A     RainGage         H1-BL-020A       3.734600067 77.84768212 243.346091 1.562755881 0                        
S-H1-BL-037      RainGage         H1-BL-037        2.390049934 89.59183673 262.5979783 2.319403865 0                        
S-H1-BL-039      RainGage         H1-BL-039        2.551579952 74.80582524 276.001479 2.346254767 0                        
S-H1-BL-090E     RainGage         H1-BL-090E       2.693880081 67.27272727 276.4483163 2.447631284 0                        
S-H1-CL-015      RainGage         H1-CL-015        2.613709927 88.26923077 251.7907351 0.091002068 0                        
S-H1-CL-023      RainGage         H1-CL-024        2.587610006 83.0952381 256.5556917 0.258962385 0                        
S-H1-CL-036      RainGage         H3-CL-015B       2.6171   80.8490566 271.0947814 0.479380777 0                        
S-H1-GA-010      RainGage         H1-GA-010        4.248990059 79.73837209 311.8613141 1.269437487 0                        
S-H1-GA-017      RainGage         H1-GA-015        2.718539953 84.59459459 335.0846844 1.31959151 0                        
S-H1-GA-022      RainGage         H3-GA-001        2.502530098 75       333.0571707 1.262307741 0                        
S-H1-GR-010      RainGage         H1-NE-011        2.141239882 95.73863636 255.9177528 1.387270383 0                        
S-H1-GR-020      RainGage         H1-GR-020        1.428269982 93.96551724 255.3598349 0.001    0                        
S-H1-GR-023A     RainGage         H1-GR-023A       2.090329885 87.38095238 277.1146306 0.001    0                        
S-H1-GR-032      RainGage         H1-GR-032        2.427360058 80.95959596 271.8618658 0.255775797 0                        
S-H1-GR-037      RainGage         H1-GR-037        2.427520037 77.5     262.8081937 0.350870937 0                        
S-H1-GR-047      RainGage         H1-GR-047        3.010390043 84.06504065 294.1668979 0.315004839 0                        
S-H1-HA-135      RainGage         H1-HA-135        3.525049925 67.37931034 331.8113924 0.391525262 0                        
S-H1-HA-138      RainGage         H1-HA-138B       3.260710001 62.5     380.4596143 0.425624382 0                        
S-H1-HA-139      RainGage         H1-HA-139A       2.710809946 58.22727273 249.0603395 0.518670817 0                        
S-H1-HA-140      RainGage         H1-HA-140B       3.042059898 48.57723577 287.6730923 0.044246328 0                        
S-H1-JA_043      RainGage         H1-JA-043        1.930909991 60.38461538 276.9949308 0.001    0                        
S-H1-JA-034      RainGage         H1-JA-034        2.534610033 74.80392157 296.9794398 0.177331252 0                        
S-H1-JA-038      RainGage         H1-JA-038        3.725140095 67.35099338 281.0184777 0.196651963 0                        
S-H1-JA-046      RainGage         H1-JA-046        4.041409969 46.98170732 256.4128947 0.001    0                        
S-H1-JE-010      RainGage         H1-JE-010        9.513489723 85.92544987 675.6042931 0.901428414 0                        
S-H1-JE-026A     RainGage         H1-JE-026A       2.66989994 80.74074074 259.7415115 0.001    0                        
S-H1-JE-037      RainGage         H1-JE-037        2.757910013 94.5045045 278.8083857 0.001    0                        
S-H1-JE-044      RainGage         H1-JE-044        2.722909927 86.57407407 278.9394946 0.001    0                        
S-H1-JE-049      RainGage         H1-JE-049        2.857690096 65.65217391 278.0054371 0.001    0                        
S-H1-MA-020      RainGage         H1-MA-016        5.455420017 77.44343891 277.373079 0.066812401 0                        
S-H1-MA-027      RainGage         H1-MA-027        2.850239992 83.18965517 276.1744784 0.001    0                        
S-H1-MA-038      RainGage         H1-MA-038        2.786829948 80.61946903 278.8807848 0.001    0                        
S-H1-MA-041      RainGage         H1-MA-042        2.546639919 79.85436893 269.0794721 0.001    0                        
S-H1-MO-027      RainGage         H1-MO-023        9.29403019 82.54010695 326.7993026 0.254965391 0                        
S-H1-MO-033      RainGage         H1-MO-033        2.822679996 78.73913043 289.1945303 0.074807025 0                        
S-H1-MO-043A     RainGage         H1-MO-043A       2.873569965 65.51282051 296.322736 0.001    0                        
S-H1-MO-047      RainGage         H1-MO-048        2.753190041 77.25225225 279.3831369 0.008931946 0                        
S-H1-MO-057      RainGage         H1-MO-057        2.667350054 85       270.4274125 0.04016788 0                        
S-H1-NE-007      RainGage         H1-NE-007        3.127429962 95       301.4288052 1.490131318 0                        
S-H1-OB-010      RainGage         H1-OB-001        3.068039894 76.6     199.5997928 1.704777855 0                        
S-H1-PA-008      RainGage         H1-OB-070        7.671909809 69.38511327 611.9047215 1.169114023 0                        
S-H1-PA-015      RainGage         H1-NE-002        1.991060019 84.5625  243.5564443 0.670606958 0                        
S-H1-PA-018      RainGage         H1-PA-019        2.319839954 75       303.8952524 0.921014044 0                        
S-H1-PA-025      RainGage         H3-PA-024        3.094199896 75       305.7539705 0.512804578 0                        
S-H1-WI-017      RainGage         H1-WI-015        2.858059883 91.56521739 271.7687992 0.577370015 0                        
S-H1-WI-022      RainGage         H1-WI-023        2.366529942 77.88659794 269.7432763 0.414471352 0                        
S-H2-01-002      RainGage         H2-01-002        2.281990051 92.5     213.4808476 3.07519865 0                        
S-H2-CO-003      RainGage         H2-CO-003        2.118700027 95       328.5027039 1.725120993 0                        
S-H2-HP-008A     RainGage         H2-INT-004       8.238089561 80.72072072 474.0681073 1.61297484 0                        
S-H2-NE-004      RainGage         H2-NE-004        2.113280058 95       261.2877305 1.816828329 0                        
S-H2-RI-002      RainGage         H2-RI-002        2.914060116 92.26086957 248.8018239 3.28490768 0                        
S-H2-RI-009      RainGage         H2-HP-004        16.79610062 91.70072993 935.3297394 1.571882904 0                        
S-H2-WA-001      RainGage         H2-NE-007        2.771310091 94.46428571 174.0711716 1.467652788 0                        
S-H3-05-090      RainGage         H3-05-090        2.612709999 61.22641509 273.6566748 0.449697616 0                        
S-H3-CL-003      RainGage         H3-CL-002        1.026499987 95.36585366 192.3748897 0.328550554 0                        
S-H3-CL-007      RainGage         H3-CL-007        2.750869989 76.8018018 274.5347227 0.316217608 0                        
S-H3-CL-012      RainGage         H3-CL-012        2.643470049 69.29906542 274.9893127 0.418366702 0                        
S-H3-GA-004      RainGage         H3-GA-002        2.89357996 75.25210084 261.1523599 1.144892077 0                        
S-H3-GA-009      RainGage         H3-03-007        2.446929932 78.2     261.1248805 1.019105307 0                        
S-H3-GA-013C     RainGage         H3-GA-013C       2.521800041 73.31683168 272.3546003 1.478879887 0                        
S-H3-GA-018A     RainGage         H3-GA-019        2.465349913 55       309.0737595 1.697762099 0                        
S-H3-HU-001      RainGage         H3-HU-002        3.72322011 93.05921053 318.4562432 1.564625973 0                        
S-H3-HU-003      RainGage         H3-03-004        2.840739965 90.26315789 315.7629524 1.781758713 0                        
S-H3-PA-004      RainGage         H3-PA-004        2.49932003 55       246.6671131 0.758040639 0                        
S-H3-PA-008      RainGage         H3-PA-008        2.309550047 50.59139785 245.193613 0.612633522 0                        
S-H3-PA-012      RainGage         H3-PA-012        2.259660006 62.93478261 261.6720073 0.381920596 0                        
S-H3-PA-020      RainGage         H3-PA-020        2.508909941 75       265.0063913 0.406919396 0                        
S-H3-RI-001      RainGage         H2-INT-009       4.708449841 51.71052632 403.0496921 3.350062515 0                        
S-H3-RI-007      RainGage         H3-RI-006        8.184940338 76.89189189 519.9415327 3.955132414 0                        
S-H3-WI-005      RainGage         H3-WI-004        1.281749964 73.84615385 193.1846864 0.34261227 0                        
S-H3-WI-010      RainGage         H3-WI-010        2.940370083 66.1440678 286.2386139 0.286699706 0                        
S-H3-WI-022      RainGage         H3-WI-022        2.469990015 73.38383838 272.910863 0.51454951 0                        
S-H3-WI-032      RainGage         H1-03-030        2.448479891 77.72727273 256.6072186 0.425564939 0                        
S-H3-WI-038AB    RainGage         H3-WI-036        2.653729916 75       257.8700333 0.679174455 0                        
S-H4-04-002      RainGage         H4-04-003        3.392159939 71.92028986 437.2730824 2.898265658 0                        
S-H4-07-090      RainGage         H3-PA-001        2.34581995 55       223.6523242 0.759148545 0                        
S-H4-07-150      RainGage         H1-GR-054        2.999969959 92.82786885 294.0801915 0.200574578 0                        
S-H4-07-160      RainGage         H1-AD-053        2.526540041 85.79207921 251.4412321 0.001    0                        
S-H4-07-170      RainGage         H1-JE-055        2.725209951 81.15044248 261.344921 0.001    0                        
S-H4-07-190      RainGage         H1-MO-062        2.850739956 90       260.3997375 0.001    0                        
S-H4-07-200      RainGage         H1-MA-054        3.372139931 82.72058824 304.8760166 0.001    0                        
S-H4-GA-002      RainGage         H3-GA-014        2.578710079 54.52380952 271.7097579 1.535099402 0                        
S-H4-GA-004      RainGage         H3-GA-015A       2.875639915 55       290.5127517 1.412229279 0                        
S-H5-INT-007A    RainGage         H5-INT-007A      4.279689789 79.59302326 354.2190533 5.740370555 0                        
S-HSI-RI-003AB   RainGage         HSI-RI-003AB     3.357019901 84.55223881 360.7384021 6.362218599 0                        
S-HSI-RI-004E    RainGage         HSI-RI-004E      4.791639805 52.62755102 394.0742271 9.428794226 0                        
S-HSI-RI-007     RainGage         HSI-RI-007       2.534450054 83.99038462 316.6667398 7.816331092 0                        
S-HWF-INT-016A   RainGage         HWF-INT-016A     3.458489895 75.71428571 363.4825027 2.752848688 0                        
S-H1-BL-025      RainGage         H1-BL-025        5.693089962 91.50655022 500.4487587 2.32870876 0                        
S-H2-03-020      RainGage         H2-03-020        2.500619888 90.29411765 282.776899 1.924733097 0                        
S-H2-WA-005A     RainGage         H2-WA-005A       2.637099981 92.14285714 282.748175 2.707144536 0                        
S-H2-WA-007      RainGage         H2-WA-007        2.316410065 95       252.7504037 3.311939959 0                        
S-H2-WA-010      RainGage         H2-WA-010        2.496140003 89.3     264.8862532 3.698510947 0                        

[SUBAREAS]
;;Subcatchment   N-Imperv   N-Perv     S-Imperv   S-Perv     PctZero    RouteTo    PctRouted 
;;-------------- ---------- ---------- ---------- ---------- ---------- ---------- ----------
S-H1-AD-026      0.014      0.04       0.11       0.1        25         OUTLET    
S-H3-up          0.014      0.04       0.024456568 0.1        25         OUTLET    
S-H4-mid         0.014      0.04       0.036921   0.1        25         OUTLET    
S-H4-up          0.014      0.04       0.074709   0.1        25         OUTLET    
S-H5-dn          0.014      0.04       0.01264235 0.1        25         OUTLET    
S-H5-mid         0.014      0.04       0.028476778 0.1        25         OUTLET    
S-H5-up          0.014      0.04       0.037160322 0.1        25         OUTLET    
S-H6             0.014      0.04       0.027238334 0.1        25         OUTLET    
S-H7-mid         0.014      0.04       0.038624274 0.1        25         OUTLET    
S-H7-up          0.014      0.04       0.040323993 0.1        25         OUTLET    
S-H1_MA-048      0.014      0.04       0.11       0.1        25         OUTLET    
S-H1-01-033      0.014      0.04       0.04282007 0.1        25         OUTLET    
S-H1-01-075      0.014      0.04       0.05929943 0.1        25         OUTLET    
S-H1-01-080      0.014      0.04       0.11       0.1        25         OUTLET    
S-H1-01-100      0.014      0.04       0.049240501 0.1        25         OUTLET    
S-H1-01-110      0.014      0.04       0.039794902 0.1        25         OUTLET    
S-H1-03-003A     0.014      0.04       0.018404266 0.1        25         OUTLET    
S-H1-03-060      0.014      0.04       0.040852944 0.1        25         OUTLET    
S-H1-03-090      0.014      0.04       0.082841731 0.1        25         OUTLET    
S-H1-03-170A     0.014      0.04       0.11       0.1        25         OUTLET    
S-H1-03-200      0.014      0.04       0.11       0.1        25         OUTLET    
S-H1-03-210      0.014      0.04       0.11       0.1        25         OUTLET    
S-H1-07-013      0.014      0.04       0.017899017 0.1        25         OUTLET    
S-H1-AD-010      0.014      0.04       0.027477307 0.1        25         OUTLET    
S-H1-AD-030      0.014      0.04       0.11       0.1        25         OUTLET    
S-H1-AD-035      0.014      0.04       0.11       0.1        25         OUTLET    
S-H1-AD-039      0.014      0.04       0.11       0.1        25         OUTLET    
S-H1-AD-043      0.014      0.04       0.11       0.1        25         OUTLET    
S-H1-AD-048      0.014      0.04       0.11       0.1        25         OUTLET    
S-H1-BL_090      0.014      0.04       0.018875162 0.1        25         OUTLET    
S-H1-BL_093      0.014      0.04       0.018618999 0.1        25         OUTLET    
S-H1-BL-015      0.014      0.04       0.018220938 0.1        25         OUTLET    
S-H1-BL-019      0.014      0.04       0.017727921 0.1        25         OUTLET    
S-H1-BL-020A     0.014      0.04       0.024346468 0.1        25         OUTLET    
S-H1-BL-037      0.014      0.04       0.02006357 0.1        25         OUTLET    
S-H1-BL-039      0.014      0.04       0.01995073 0.1        25         OUTLET    
S-H1-BL-090E     0.014      0.04       0.019541464 0.1        25         OUTLET    
S-H1-CL-015      0.014      0.04       0.098063527 0.1        25         OUTLET    
S-H1-CL-023      0.014      0.04       0.058743072 0.1        25         OUTLET    
S-H1-CL-036      0.014      0.04       0.043441932 0.1        25         OUTLET    
S-H1-GA-010      0.014      0.04       0.026957095 0.1        25         OUTLET    
S-H1-GA-017      0.014      0.04       0.026450097 0.1        25         OUTLET    
S-H1-GA-022      0.014      0.04       0.027031594 0.1        25         OUTLET    
S-H1-GR-010      0.014      0.04       0.025809743 0.1        25         OUTLET    
S-H1-GR-020      0.014      0.04       0.11       0.1        25         OUTLET    
S-H1-GR-023A     0.014      0.04       0.11       0.1        25         OUTLET    
S-H1-GR-032      0.014      0.04       0.059100547 0.1        25         OUTLET    
S-H1-GR-037      0.014      0.04       0.050619798 0.1        25         OUTLET    
S-H1-GR-047      0.014      0.04       0.053366312 0.1        25         OUTLET    
S-H1-HA-135      0.014      0.04       0.047972277 0.1        25         OUTLET    
S-H1-HA-138      0.014      0.04       0.046048941 0.1        25         OUTLET    
S-H1-HA-139      0.014      0.04       0.041797051 0.1        25         OUTLET    
S-H1-HA-140      0.014      0.04       0.11       0.1        25         OUTLET    
S-H1-JA_043      0.014      0.04       0.11       0.1        25         OUTLET    
S-H1-JA-034      0.014      0.04       0.070719282 0.1        25         OUTLET    
S-H1-JA-038      0.014      0.04       0.067224947 0.1        25         OUTLET    
S-H1-JA-046      0.014      0.04       0.11       0.1        25         OUTLET    
S-H1-JE-010      0.014      0.04       0.031880588 0.1        25         OUTLET    
S-H1-JE-026A     0.014      0.04       0.11       0.1        25         OUTLET    
S-H1-JE-037      0.014      0.04       0.11       0.1        25         OUTLET    
S-H1-JE-044      0.014      0.04       0.11       0.1        25         OUTLET    
S-H1-JE-049      0.014      0.04       0.11       0.1        25         OUTLET    
S-H1-MA-020      0.014      0.04       0.11       0.1        25         OUTLET    
S-H1-MA-027      0.014      0.04       0.11       0.1        25         OUTLET    
S-H1-MA-038      0.014      0.04       0.11       0.1        25         OUTLET    
S-H1-MA-041      0.014      0.04       0.11       0.1        25         OUTLET    
S-H1-MO-027      0.014      0.04       0.059192519 0.1        25         OUTLET    
S-H1-MO-033      0.014      0.04       0.10794707 0.1        25         OUTLET    
S-H1-MO-043A     0.014      0.04       0.11       0.1        25         OUTLET    
S-H1-MO-047      0.014      0.04       0.11       0.1        25         OUTLET    
S-H1-MO-057      0.014      0.04       0.11       0.1        25         OUTLET    
S-H1-NE-007      0.014      0.04       0.024920836 0.1        25         OUTLET    
S-H1-OB-010      0.014      0.04       0.023330573 0.1        25         OUTLET    
S-H1-PA-008      0.014      0.04       0.028066791 0.1        25         OUTLET    
S-H1-PA-015      0.014      0.04       0.036853037 0.1        25         OUTLET    
S-H1-PA-018      0.014      0.04       0.031546571 0.1        25         OUTLET    
S-H1-PA-025      0.014      0.04       0.042030659 0.1        25         OUTLET    
S-H1-WI-017      0.014      0.04       0.039657931 0.1        25         OUTLET    
S-H1-WI-022      0.014      0.04       0.046652005 0.1        25         OUTLET    
S-H2-01-002      0.014      0.04       0.017473696 0.1        25         Outlet    
S-H2-CO-003      0.014      0.04       0.023195356 0.1        25         Outlet    
S-H2-HP-008A     0.014      0.04       0.023972046 0.1        25         OUTLET    
S-H2-NE-004      0.014      0.04       0.022614075 0.1        25         OUTLET    
S-H2-RI-002      0.014      0.04       0.016917893 0.1        25         Outlet    
S-H2-RI-009      0.014      0.04       0.024277096 0.1        25         Outlet    
S-H2-WA-001      0.014      0.04       0.025107137 0.1        25         OUTLET    
S-H3-05-090      0.014      0.04       0.044824096 0.1        25         OUTLET    
S-H3-CL-003      0.014      0.04       0.052276626 0.1        25         OUTLET    
S-H3-CL-007      0.014      0.04       0.053265924 0.1        25         OUTLET    
S-H3-CL-012      0.014      0.04       0.046438656 0.1        25         OUTLET    
S-H3-GA-004      0.014      0.04       0.028356198 0.1        25         OUTLET    
S-H3-GA-009      0.014      0.04       0.030020318 0.1        25         OUTLET    
S-H3-GA-013C     0.014      0.04       0.02501356 0.1        25         OUTLET    
S-H3-GA-018A     0.014      0.04       0.023377765 0.1        25         OUTLET    
S-H3-HU-001      0.014      0.04       0.024332205 0.1        25         Outlet    
S-H3-HU-003      0.014      0.04       0.022831091 0.1        25         Outlet    
S-H3-PA-004      0.014      0.04       0.034705101 0.1        25         OUTLET    
S-H3-PA-008      0.014      0.04       0.038522482 0.1        25         OUTLET    
S-H3-PA-012      0.014      0.04       0.04855968 0.1        25         OUTLET    
S-H3-PA-020      0.014      0.04       0.047074262 0.1        25         OUTLET    
S-H3-RI-001      0.014      0.04       0.016755859 0.1        25         Outlet    
S-H3-RI-007      0.014      0.04       0.015446629 0.1        25         Outlet    
S-H3-WI-005      0.014      0.04       0.051214059 0.1        25         OUTLET    
S-H3-WI-010      0.014      0.04       0.055886032 0.1        25         OUTLET    
S-H3-WI-022      0.014      0.04       0.041960757 0.1        25         OUTLET    
S-H3-WI-032      0.014      0.04       0.046052092 0.1        25         OUTLET    
S-H3-WI-038AB    0.014      0.04       0.036624506 0.1        25         OUTLET    
S-H4-04-002      0.014      0.04       0.017988499 0.1        25         Outlet    
S-H4-07-090      0.014      0.04       0.034680274 0.1        25         OUTLET    
S-H4-07-150      0.014      0.04       0.066577494 0.1        25         OUTLET    
S-H4-07-160      0.014      0.04       0.11       0.1        25         OUTLET    
S-H4-07-170      0.014      0.04       0.11       0.1        25         OUTLET    
S-H4-07-190      0.014      0.04       0.11       0.1        25         OUTLET    
S-H4-07-200      0.014      0.04       0.11       0.1        25         OUTLET    
S-H4-GA-002      0.014      0.04       0.024560417 0.1        25         OUTLET    
S-H4-GA-004      0.014      0.04       0.025585215 0.1        25         OUTLET    
S-H5-INT-007A    0.014      0.04       0.012869512 0.1        25         Outlet    
S-HSI-RI-003AB   0.014      0.04       0.012236985 0.1        25         Outlet    
S-HSI-RI-004E    0.014      0.04       0.010091579 0.1        25         Outlet    
S-HSI-RI-007     0.014      0.04       0.011062956 0.1        25         Outlet    
S-HWF-INT-016A   0.014      0.04       0.018448   0.1        25         Outlet    
S-H1-BL-025      0.014      0.04       0.020024247 0.1        25         OUTLET    
S-H2-03-020      0.014      0.04       0.021983715 0.1        25         OUTLET    
S-H2-WA-005A     0.014      0.04       0.01859996 0.1        25         OUTLET    
S-H2-WA-007      0.014      0.04       0.01685009 0.1        25         OUTLET    
S-H2-WA-010      0.014      0.04       0.015962814 0.1        25         OUTLET    

[INFILTRATION]
;;Subcatchment   CurveNum              DryTime   
;;-------------- ---------- ---------- ----------
S-H1-AD-026      85         0.5        6         
S-H3-up          85         0.5        6         
S-H4-mid         85         0.5        6         
S-H4-up          85         0.5        6         
S-H5-dn          85         0.5        6         
S-H5-mid         85         0.5        6         
S-H5-up          85         0.5        6         
S-H6             85         0.5        6         
S-H7-mid         85         0.5        6         
S-H7-up          85         0.5        6         
S-H1_MA-048      85         0.5        6         
S-H1-01-033      85         0.5        6         
S-H1-01-075      85         0.5        6         
S-H1-01-080      85         0.5        6         
S-H1-01-100      85         0.5        6         
S-H1-01-110      85         0.5        6         
S-H1-03-003A     85         0.5        6         
S-H1-03-060      85         0.5        6         
S-H1-03-090      85         0.5        6         
S-H1-03-170A     85         0.5        6         
S-H1-03-200      85         0.5        6         
S-H1-03-210      85         0.5        6         
S-H1-07-013      85         0.5        6         
S-H1-AD-010      85         0.5        6         
S-H1-AD-030      85         0.5        6         
S-H1-AD-035      85         0.5        6         
S-H1-AD-039      85         0.5        6         
S-H1-AD-043      85         0.5        6         
S-H1-AD-048      85         0.5        6         
S-H1-BL_090      85         0.5        6         
S-H1-BL_093      85         0.5        6         